10
 ZORA-SR PBE TZ2P "~ w3s2.log (C+E dif: angulos y r)"  BE -0.83043873 au  
Hg        1.586647    0.395513   -0.611183
O         2.660194    0.353593   -2.476202
H         3.590261    0.030107   -2.462833
H         2.216524   -0.054923   -3.253861
O         1.449171    0.114767    1.557940
H         2.262411   -0.096152    2.068784
H         0.952985    0.800996    2.057723
O        -0.597946    1.157174   -0.362731
H        -0.884232    1.954106   -0.859332
H        -1.336965    0.514271   -0.431167
