13
tetrameroNa_A E(RM062X) = -467.889413631
Na	0.520345	-0.026585	-0.000082
O	-1.054895	1.453242	0.775813
H	-1.163792	2.219303	1.345198
H	-1.588572	1.615112	-0.009734
O	-1.121398	-1.383401	0.858443
H	-1.260007	-2.251081	1.246903
H	-1.639812	-0.762815	1.382081
O	2.779900	-0.014681	-0.002182
H	3.356952	0.751645	0.057131
H	3.371351	-0.769918	-0.061082
O	-1.096569	-0.031422	-1.632578
H	-1.653123	-0.773918	-1.374055
H	-1.203087	0.074204	-2.581508
