10
 ZORA-SR PBE TZ2P  "~ w3s1.log (Cesar+Edison)" BE -0.84878631  au
Hg       -0.582838    1.087392    0.718405
O        -0.633908    0.159191   -1.044550
H        -1.463212   -0.851159   -1.661312
H         0.081075    0.507265   -1.617548
O        -2.096904   -1.602116   -2.079593
H        -2.696051   -1.278923   -2.789449
H        -1.627937   -2.415077   -2.374530
O        -0.665887    1.999042    2.598836
H        -0.057832    1.669694    3.300330
H        -0.667630    2.983295    2.633308
