19
hexameroLi1 E(RM062X) = -466.065018517
Li	0.000001	0.000128	-0.000120
O	-1.297844	1.004489	-0.977838
H	-1.215993	1.682689	-1.649890
H	-2.240303	0.848994	-0.828303
O	3.765422	-0.000110	0.000116
H	4.345309	-0.548517	0.536876
H	4.345696	0.548078	-0.536446
O	1.297728	0.978038	1.004242
H	2.240209	0.828470	0.848927
H	1.215773	1.649970	1.682547
O	-3.765422	-0.000136	0.000116
H	-4.345484	0.536532	0.548422
H	-4.345518	-0.536837	-0.548122
O	-1.297616	-1.004431	0.977827
H	-2.240123	-0.849079	0.828423
H	-1.215566	-1.682709	1.649774
O	1.297729	-0.977829	-1.004474
H	1.215819	-1.649885	-1.682662
H	2.240200	-0.828263	-0.849099
